%chk=test.chk
%NProcShared=1
# Opt=NoMicro External="./ExtGCP.sh"

Title

0 1
 C                  0.00000000    1.39499067    0.00000000
 C                 -1.20809735    0.69749533    0.00000000
 C                 -1.20809735   -0.69749533    0.00000000
 C                  0.00000000   -1.39499067    0.00000000
 C                  1.20809735   -0.69749533    0.00000000
 C                  1.20809735    0.69749533    0.00000000
 H                  0.00000000    2.49460097   -0.00000000
 H                 -2.16038781    1.24730049   -0.00000000
 H                 -2.16038781   -1.24730049   -0.00000000
 H                  0.00000000   -2.49460097   -0.00000000
 H                  2.16038781   -1.24730049   -0.00000000
 H                  2.16038781    1.24730049   -0.00000000

